
#======================================================================
# CRYSTAL DATA
#----------------------------------------------------------------------
data_VESTA_phase_1

_chemical_name_common                  'New structure'
_cell_length_a                         33.599998
_cell_length_b                         33.599998
_cell_length_c                         8.400000
_cell_angle_alpha                      90.000000
_cell_angle_beta                       90.000000
_cell_angle_gamma                      90.000000
_cell_volume                           9483.262708
_space_group_name_H-M_alt              'F d -3 m'
_space_group_IT_number                 227

loop_
_space_group_symop_operation_xyz
   'x, y, z'
   '-x, -y+1/4, z+1/2'
   '-x+1/4, y+1/4, -z'
   'x+1/4, -y, -z+1/2'
   '1/2z, x, 2y'
   '1/2z+1/4, -x, -2y+1/2'
   '-1/2z, -x+1/4, 2y+1/2'
   '-1/2z+1/4, x+1/4, -2y'
   'y, 1/2z, 2x'
   '-y+1/4, 1/2z+1/4, -2x'
   'y+1/4, -1/2z, -2x+1/2'
   '-y, -1/2z+1/4, 2x+1/2'
   'y+3/8, x+1/8, -z+3/4'
   '-y+1/8, -x+1/8, -z+1/4'
   'y+1/8, -x+3/8, z+3/4'
   '-y+3/8, x+3/8, z+1/4'
   'x+3/8, 1/2z+1/8, -2y+3/4'
   '-x+3/8, 1/2z+3/8, 2y+1/4'
   '-x+1/8, -1/2z+1/8, -2y+1/4'
   'x+1/8, -1/2z+3/8, 2y+3/4'
   '1/2z+3/8, y+1/8, -2x+3/4'
   '1/2z+1/8, -y+3/8, 2x+3/4'
   '-1/2z+3/8, y+3/8, 2x+1/4'
   '-1/2z+1/8, -y+1/8, -2x+1/4'
   '-x+1/8, -y+1/8, -z+1/4'
   'x+1/8, y+3/8, -z+3/4'
   'x+3/8, -y+3/8, z+1/4'
   '-x+3/8, y+1/8, z+3/4'
   '-1/2z+1/8, -x+1/8, -2y+1/4'
   '-1/2z+3/8, x+1/8, 2y+3/4'
   '1/2z+1/8, x+3/8, -2y+3/4'
   '1/2z+3/8, -x+3/8, 2y+1/4'
   '-y+1/8, -1/2z+1/8, -2x+1/4'
   'y+3/8, -1/2z+3/8, 2x+1/4'
   '-y+3/8, 1/2z+1/8, 2x+3/4'
   'y+1/8, 1/2z+3/8, -2x+3/4'
   '-y+1/4, -x, z+1/2'
   'y, x, z'
   '-y, x+1/4, -z+1/2'
   'y+1/4, -x+1/4, -z'
   '-x+1/4, -1/2z, 2y+1/2'
   'x+1/4, -1/2z+1/4, -2y'
   'x, 1/2z, 2y'
   '-x, 1/2z+1/4, -2y+1/2'
   '-1/2z+1/4, -y, 2x+1/2'
   '-1/2z, y+1/4, -2x+1/2'
   '1/2z+1/4, -y+1/4, -2x'
   '1/2z, y, 2x'
   'x, y+1/4, z+1/2'
   '-x, -y, z'
   '-x+1/4, y, -z+1/2'
   'x+1/4, -y+1/4, -z'
   '1/2z, x+1/4, 2y+1/2'
   '1/2z+1/4, -x+1/4, -2y'
   '-1/2z, -x, 2y'
   '-1/2z+1/4, x, -2y+1/2'
   'y, 1/2z+1/4, 2x+1/2'
   '-y+1/4, 1/2z, -2x+1/2'
   'y+1/4, -1/2z+1/4, -2x'
   '-y, -1/2z, 2x'
   'y+3/8, x+3/8, -z+1/4'
   '-y+1/8, -x+3/8, -z+3/4'
   'y+1/8, -x+1/8, z+1/4'
   '-y+3/8, x+1/8, z+3/4'
   'x+3/8, 1/2z+3/8, -2y+1/4'
   '-x+3/8, 1/2z+1/8, 2y+3/4'
   '-x+1/8, -1/2z+3/8, -2y+3/4'
   'x+1/8, -1/2z+1/8, 2y+1/4'
   '1/2z+3/8, y+3/8, -2x+1/4'
   '1/2z+1/8, -y+1/8, 2x+1/4'
   '-1/2z+3/8, y+1/8, 2x+3/4'
   '-1/2z+1/8, -y+3/8, -2x+3/4'
   '-x+1/8, -y+3/8, -z+3/4'
   'x+1/8, y+1/8, -z+1/4'
   'x+3/8, -y+1/8, z+3/4'
   '-x+3/8, y+3/8, z+1/4'
   '-1/2z+1/8, -x+3/8, -2y+3/4'
   '-1/2z+3/8, x+3/8, 2y+1/4'
   '1/2z+1/8, x+1/8, -2y+1/4'
   '1/2z+3/8, -x+1/8, 2y+3/4'
   '-y+1/8, -1/2z+3/8, -2x+3/4'
   'y+3/8, -1/2z+1/8, 2x+3/4'
   '-y+3/8, 1/2z+3/8, 2x+1/4'
   'y+1/8, 1/2z+1/8, -2x+1/4'
   '-y+1/4, -x+1/4, z'
   'y, x+1/4, z+1/2'
   '-y, x, -z'
   'y+1/4, -x, -z+1/2'
   '-x+1/4, -1/2z+1/4, 2y'
   'x+1/4, -1/2z, -2y+1/2'
   'x, 1/2z+1/4, 2y+1/2'
   '-x, 1/2z, -2y'
   '-1/2z+1/4, -y+1/4, 2x'
   '-1/2z, y, -2x'
   '1/2z+1/4, -y, -2x+1/2'
   '1/2z, y+1/4, 2x+1/2'
   'x+1/4, y, z+1/2'
   '-x+1/4, -y+1/4, z'
   '-x, y+1/4, -z+1/2'
   'x, -y, -z'
   '1/2z+1/4, x, 2y+1/2'
   '1/2z, -x, -2y'
   '-1/2z+1/4, -x+1/4, 2y'
   '-1/2z, x+1/4, -2y+1/2'
   'y+1/4, 1/2z, 2x+1/2'
   '-y, 1/2z+1/4, -2x+1/2'
   'y, -1/2z, -2x'
   '-y+1/4, -1/2z+1/4, 2x'
   'y+1/8, x+1/8, -z+1/4'
   '-y+3/8, -x+1/8, -z+3/4'
   'y+3/8, -x+3/8, z+1/4'
   '-y+1/8, x+3/8, z+3/4'
   'x+1/8, 1/2z+1/8, -2y+1/4'
   '-x+1/8, 1/2z+3/8, 2y+3/4'
   '-x+3/8, -1/2z+1/8, -2y+3/4'
   'x+3/8, -1/2z+3/8, 2y+1/4'
   '1/2z+1/8, y+1/8, -2x+1/4'
   '1/2z+3/8, -y+3/8, 2x+1/4'
   '-1/2z+1/8, y+3/8, 2x+3/4'
   '-1/2z+3/8, -y+1/8, -2x+3/4'
   '-x+3/8, -y+1/8, -z+3/4'
   'x+3/8, y+3/8, -z+1/4'
   'x+1/8, -y+3/8, z+3/4'
   '-x+1/8, y+1/8, z+1/4'
   '-1/2z+3/8, -x+1/8, -2y+3/4'
   '-1/2z+1/8, x+1/8, 2y+1/4'
   '1/2z+3/8, x+3/8, -2y+1/4'
   '1/2z+1/8, -x+3/8, 2y+3/4'
   '-y+3/8, -1/2z+1/8, -2x+3/4'
   'y+1/8, -1/2z+3/8, 2x+3/4'
   '-y+1/8, 1/2z+1/8, 2x+1/4'
   'y+3/8, 1/2z+3/8, -2x+1/4'
   '-y, -x, z'
   'y+1/4, x, z+1/2'
   '-y+1/4, x+1/4, -z'
   'y, -x+1/4, -z+1/2'
   '-x, -1/2z, 2y'
   'x, -1/2z+1/4, -2y+1/2'
   'x+1/4, 1/2z, 2y+1/2'
   '-x+1/4, 1/2z+1/4, -2y'
   '-1/2z, -y, 2x'
   '-1/2z+1/4, y+1/4, -2x'
   '1/2z, -y+1/4, -2x+1/2'
   '1/2z+1/4, y, 2x+1/2'
   'x+1/4, y+1/4, z'
   '-x+1/4, -y, z+1/2'
   '-x, y, -z'
   'x, -y+1/4, -z+1/2'
   '1/2z+1/4, x+1/4, 2y'
   '1/2z, -x+1/4, -2y+1/2'
   '-1/2z+1/4, -x, 2y+1/2'
   '-1/2z, x, -2y'
   'y+1/4, 1/2z+1/4, 2x'
   '-y, 1/2z, -2x'
   'y, -1/2z+1/4, -2x+1/2'
   '-y+1/4, -1/2z, 2x+1/2'
   'y+1/8, x+3/8, -z+3/4'
   '-y+3/8, -x+3/8, -z+1/4'
   'y+3/8, -x+1/8, z+3/4'
   '-y+1/8, x+1/8, z+1/4'
   'x+1/8, 1/2z+3/8, -2y+3/4'
   '-x+1/8, 1/2z+1/8, 2y+1/4'
   '-x+3/8, -1/2z+3/8, -2y+1/4'
   'x+3/8, -1/2z+1/8, 2y+3/4'
   '1/2z+1/8, y+3/8, -2x+3/4'
   '1/2z+3/8, -y+1/8, 2x+3/4'
   '-1/2z+1/8, y+1/8, 2x+1/4'
   '-1/2z+3/8, -y+3/8, -2x+1/4'
   '-x+3/8, -y+3/8, -z+1/4'
   'x+3/8, y+1/8, -z+3/4'
   'x+1/8, -y+1/8, z+1/4'
   '-x+1/8, y+3/8, z+3/4'
   '-1/2z+3/8, -x+3/8, -2y+1/4'
   '-1/2z+1/8, x+3/8, 2y+3/4'
   '1/2z+3/8, x+1/8, -2y+3/4'
   '1/2z+1/8, -x+1/8, 2y+1/4'
   '-y+3/8, -1/2z+3/8, -2x+1/4'
   'y+1/8, -1/2z+1/8, 2x+1/4'
   '-y+1/8, 1/2z+3/8, 2x+3/4'
   'y+3/8, 1/2z+1/8, -2x+3/4'
   '-y, -x+1/4, z+1/2'
   'y+1/4, x+1/4, z'
   '-y+1/4, x, -z+1/2'
   'y, -x, -z'
   '-x, -1/2z+1/4, 2y+1/2'
   'x, -1/2z, -2y'
   'x+1/4, 1/2z+1/4, 2y'
   '-x+1/4, 1/2z, -2y+1/2'
   '-1/2z, -y+1/4, 2x+1/2'
   '-1/2z+1/4, y, -2x+1/2'
   '1/2z, -y, -2x'
   '1/2z+1/4, y+1/4, 2x'

loop_
   _atom_site_label
   _atom_site_occupancy
   _atom_site_fract_x
   _atom_site_fract_y
   _atom_site_fract_z
   _atom_site_adp_type
   _atom_site_U_iso_or_equiv
   _atom_site_type_symbol
   Zn1        0.8000  0.031250     0.031250     0.125000    Uiso  ? Zn
   Zn1        0.8000  0.031250     0.531250     0.125000    Uiso  ? Zn
   Zn1        0.8000  0.531250     0.031250     0.125000    Uiso  ? Zn
   Zn1        0.8000  0.531250     0.531250     0.125000    Uiso  ? Zn
   Mn1        0.2000  0.031250     0.031250     0.125000    Uiso  ? Mn
   Mn1        0.2000  0.031250     0.531250     0.125000    Uiso  ? Mn
   Mn1        0.2000  0.531250     0.031250     0.125000    Uiso  ? Mn
   Mn1        0.2000  0.531250     0.531250     0.125000    Uiso  ? Mn
   Fe1        1.0     0.125000     0.125000     0.500000    Uiso  ? Fe
   Fe1        1.0     0.125000     0.625000     0.500000    Uiso  ? Fe
   Fe1        1.0     0.625000     0.125000     0.500000    Uiso  ? Fe
   Fe1        1.0     0.625000     0.625000     0.500000    Uiso  ? Fe
   O1         1.0     0.062500     0.062500     0.250000    Uiso  ? O
   O1         1.0     0.062500     0.562500     0.250000    Uiso  ? O
   O1         1.0     0.562500     0.062500     0.250000    Uiso  ? O
   O1         1.0     0.562500     0.562500     0.250000    Uiso  ? O
